data_F6Na1Al1K2
#By Jump2
_cell_length_a                           8.2572
_cell_length_b                           8.2572
_cell_length_c                           8.2572
_cell_angle_alpha                       90.0000
_cell_angle_beta                        90.0000
_cell_angle_gamma                       90.0000
_cell_volume                           562.9902
_symmetry_space_group_name_H-M        F m -3 m
_symmetry_Int_Tables_number               225
loop_
_symmetry_equiv_pos_as_xyz
    x,y,z
    -x,-y,z
    -x,y,-z
    x,-y,-z
    z,x,y
    z,-x,-y
    -z,-x,y
    -z,x,-y
    y,z,x
    -y,z,-x
    y,-z,-x
    -y,-z,x
    y,x,-z
    -y,-x,-z
    y,-x,z
    -y,x,z
    x,z,-y
    -x,z,y
    -x,-z,-y
    x,-z,y
    z,y,-x
    z,-y,x
    -z,y,x
    -z,-y,-x
    -x,-y,-z
    x,y,-z
    x,-y,z
    -x,y,z
    -z,-x,-y
    -z,x,y
    z,x,-y
    z,-x,y
    -y,-z,-x
    y,-z,x
    -y,z,x
    y,z,-x
    -y,-x,z
    y,x,z
    -y,x,-z
    y,-x,-z
    -x,-z,y
    x,-z,-y
    x,z,y
    -x,z,-y
    -z,-y,x
    -z,y,-x
    z,-y,-x
    z,y,x
    x,y+0.5,z+0.5
    -x,-y+0.5,z+0.5
    -x,y+0.5,-z+0.5
    x,-y+0.5,-z+0.5
    z,x+0.5,y+0.5
    z,-x+0.5,-y+0.5
    -z,-x+0.5,y+0.5
    -z,x+0.5,-y+0.5
    y,z+0.5,x+0.5
    -y,z+0.5,-x+0.5
    y,-z+0.5,-x+0.5
    -y,-z+0.5,x+0.5
    y,x+0.5,-z+0.5
    -y,-x+0.5,-z+0.5
    y,-x+0.5,z+0.5
    -y,x+0.5,z+0.5
    x,z+0.5,-y+0.5
    -x,z+0.5,y+0.5
    -x,-z+0.5,-y+0.5
    x,-z+0.5,y+0.5
    z,y+0.5,-x+0.5
    z,-y+0.5,x+0.5
    -z,y+0.5,x+0.5
    -z,-y+0.5,-x+0.5
    -x,-y+0.5,-z+0.5
    x,y+0.5,-z+0.5
    x,-y+0.5,z+0.5
    -x,y+0.5,z+0.5
    -z,-x+0.5,-y+0.5
    -z,x+0.5,y+0.5
    z,x+0.5,-y+0.5
    z,-x+0.5,y+0.5
    -y,-z+0.5,-x+0.5
    y,-z+0.5,x+0.5
    -y,z+0.5,x+0.5
    y,z+0.5,-x+0.5
    -y,-x+0.5,z+0.5
    y,x+0.5,z+0.5
    -y,x+0.5,-z+0.5
    y,-x+0.5,-z+0.5
    -x,-z+0.5,y+0.5
    x,-z+0.5,-y+0.5
    x,z+0.5,y+0.5
    -x,z+0.5,-y+0.5
    -z,-y+0.5,x+0.5
    -z,y+0.5,-x+0.5
    z,-y+0.5,-x+0.5
    z,y+0.5,x+0.5
    x+0.5,y,z+0.5
    -x+0.5,-y,z+0.5
    -x+0.5,y,-z+0.5
    x+0.5,-y,-z+0.5
    z+0.5,x,y+0.5
    z+0.5,-x,-y+0.5
    -z+0.5,-x,y+0.5
    -z+0.5,x,-y+0.5
    y+0.5,z,x+0.5
    -y+0.5,z,-x+0.5
    y+0.5,-z,-x+0.5
    -y+0.5,-z,x+0.5
    y+0.5,x,-z+0.5
    -y+0.5,-x,-z+0.5
    y+0.5,-x,z+0.5
    -y+0.5,x,z+0.5
    x+0.5,z,-y+0.5
    -x+0.5,z,y+0.5
    -x+0.5,-z,-y+0.5
    x+0.5,-z,y+0.5
    z+0.5,y,-x+0.5
    z+0.5,-y,x+0.5
    -z+0.5,y,x+0.5
    -z+0.5,-y,-x+0.5
    -x+0.5,-y,-z+0.5
    x+0.5,y,-z+0.5
    x+0.5,-y,z+0.5
    -x+0.5,y,z+0.5
    -z+0.5,-x,-y+0.5
    -z+0.5,x,y+0.5
    z+0.5,x,-y+0.5
    z+0.5,-x,y+0.5
    -y+0.5,-z,-x+0.5
    y+0.5,-z,x+0.5
    -y+0.5,z,x+0.5
    y+0.5,z,-x+0.5
    -y+0.5,-x,z+0.5
    y+0.5,x,z+0.5
    -y+0.5,x,-z+0.5
    y+0.5,-x,-z+0.5
    -x+0.5,-z,y+0.5
    x+0.5,-z,-y+0.5
    x+0.5,z,y+0.5
    -x+0.5,z,-y+0.5
    -z+0.5,-y,x+0.5
    -z+0.5,y,-x+0.5
    z+0.5,-y,-x+0.5
    z+0.5,y,x+0.5
    x+0.5,y+0.5,z
    -x+0.5,-y+0.5,z
    -x+0.5,y+0.5,-z
    x+0.5,-y+0.5,-z
    z+0.5,x+0.5,y
    z+0.5,-x+0.5,-y
    -z+0.5,-x+0.5,y
    -z+0.5,x+0.5,-y
    y+0.5,z+0.5,x
    -y+0.5,z+0.5,-x
    y+0.5,-z+0.5,-x
    -y+0.5,-z+0.5,x
    y+0.5,x+0.5,-z
    -y+0.5,-x+0.5,-z
    y+0.5,-x+0.5,z
    -y+0.5,x+0.5,z
    x+0.5,z+0.5,-y
    -x+0.5,z+0.5,y
    -x+0.5,-z+0.5,-y
    x+0.5,-z+0.5,y
    z+0.5,y+0.5,-x
    z+0.5,-y+0.5,x
    -z+0.5,y+0.5,x
    -z+0.5,-y+0.5,-x
    -x+0.5,-y+0.5,-z
    x+0.5,y+0.5,-z
    x+0.5,-y+0.5,z
    -x+0.5,y+0.5,z
    -z+0.5,-x+0.5,-y
    -z+0.5,x+0.5,y
    z+0.5,x+0.5,-y
    z+0.5,-x+0.5,y
    -y+0.5,-z+0.5,-x
    y+0.5,-z+0.5,x
    -y+0.5,z+0.5,x
    y+0.5,z+0.5,-x
    -y+0.5,-x+0.5,z
    y+0.5,x+0.5,z
    -y+0.5,x+0.5,-z
    y+0.5,-x+0.5,-z
    -x+0.5,-z+0.5,y
    x+0.5,-z+0.5,-y
    x+0.5,z+0.5,y
    -x+0.5,z+0.5,-y
    -z+0.5,-y+0.5,x
    -z+0.5,y+0.5,-x
    z+0.5,-y+0.5,-x
    z+0.5,y+0.5,x
loop_
_atom_site_label
_atom_site_type_symbol
_atom_site_wyckoff_symbol
_atom_site_fract_x
_atom_site_fract_y
_atom_site_fract_z
_atom_site_occupancy
F1     F    e        0.27731198       0.00000000       0.50000000    1.00
Na1     Na    e        0.00000000       0.00000000       0.50000000    1.00
Al1     Al    e        0.00000000       0.00000000       0.00000000    1.00
K1     K    c        0.75000000       0.25000000       0.25000000    1.00
