#======================================================================

# CRYSTAL DATA

#----------------------------------------------------------------------

data_VESTA_phase_1


_pd_phase_name                         'CIS                                   '
_cell_length_a                         7.51022
_cell_length_b                         7.51022
_cell_length_c                         10.56059
_cell_angle_alpha                      90
_cell_angle_beta                       90
_cell_angle_gamma                      90
_symmetry_space_group_name_H-M         'P 1'
_symmetry_Int_Tables_number            1

loop_
_symmetry_equiv_pos_as_xyz
   'x, y, z'

loop_
   _atom_site_label
   _atom_site_occupancy
   _atom_site_fract_x
   _atom_site_fract_y
   _atom_site_fract_z
   _atom_site_adp_type
   _atom_site_B_iso_or_equiv
   _atom_site_type_symbol
   Cs1        1.0     0.500000      0.000000      0.232958     Biso  1.000000 Cs
   Cs2        1.0     0.500000      0.000000      0.767042     Biso  1.000000 Cs
   Cs3        1.0     0.000000      0.500000      0.232958     Biso  1.000000 Cs
   Cs4        1.0     0.000000      0.500000      0.767042     Biso  1.000000 Cs
   Zn1        1.0     0.500000      0.500000      0.000000     Biso  1.000000 Zn
   Sn1        1.0     0.000000      0.000000      0.500000     Biso  1.000000 Sn
   Ag1        1.0     0.500000      0.500000      0.500000     Biso  1.000000 Ag
   Ag2        1.0     0.000000      0.000000      0.000000     Biso  1.000000 Ag
   Cl1        1.0     0.732870      0.267129      0.000000     Biso  1.000000 Cl
   Cl2        1.0     0.267130      0.732871      0.000000     Biso  1.000000 Cl
   Cl3        1.0     0.732871      0.732870      0.000000     Biso  1.000000 Cl
   Cl4        1.0     0.267129      0.267130      0.000000     Biso  1.000000 Cl
   Cl5        1.0     0.232519      0.767473      0.500000     Biso  1.000000 Cl
   Cl6        1.0     0.767481      0.232527      0.500000     Biso  1.000000 Cl
   Cl7        1.0     0.232527      0.232519      0.500000     Biso  1.000000 Cl
   Cl8        1.0     0.767473      0.767481      0.500000     Biso  1.000000 Cl
   Cl9        1.0     0.500000      0.500000      0.737731     Biso  1.000000 Cl
   Cl10       1.0     0.500000      0.500000      0.262269     Biso  1.000000 Cl
   Cl11       1.0     0.000000      0.000000      0.260867     Biso  1.000000 Cl
   Cl12       1.0     0.000000      0.000000      0.739133     Biso  1.000000 Cl
